Codigos/Simulacoes/57/06 - EE/ieee57_21_2100_EE.txt
================================================================================= 
=== UFF - Doutorado em Computação - Aplicaçoes em Sistemas de Potencia        === 
=== ESTIMADOR DE ESTADO MÍNIMOS QUADRADOS PONDERADOS INCLUINDO MEDIDAS DE PMU === 
=== Desenvolvido por: Rui Menezes de Moraes - 2009                            === 
================================================================================= 
Arquivo de medidores:          F:\Documents\Uff\Artigos\SimSEP\VERSAO WELDAN V2\Codigos\Med\ieee57_21_2100.med
Arquivo do sistema:            F:\Documents\Uff\Artigos\SimSEP\VERSAO WELDAN V2\Codigos\Carga\ieee57_21_2100.txt
Tolerância entre iteraçoes:     1.00e-04
Limite de iteraçoes:           100

--- DADOS DA REDE --------------------------------------------------------------- 
Data do caso:                  08/25/93
Origem:                        UW ARCHIVE          
MVA base:                      100
Ano:                           1961
Estação:                       W
Identificação:                 IEEE 57 Bus Test Case
Número de barras:              57 
Número de ramos:               80 
Referência na barra:           1

--- TELEMEDIDAS ------------------------------------------------------------------
    Tipo 1 = Fluxo de potencia ativa        Tipo  6 = Módulo da tensão            
    Tipo 2 = Injeção de potencia ativa      Tipo  7 = Corrente de ramo (real)     
    Tipo 3 = Ângulo de fase da tensão       Tipo  8 = Corrente de ramo (imag)     
    Tipo 4 = Fluxo de potencia reativa      Tipo  9 = Injeção de corrente (real)  
    Tipo 5 = Injeção de potencia reativa    Tipo 10 = Injeção de corrente (imag)  
----------------------------------------------------------------------------------
   N    D    P TP  PN ST   Exa   FS       DP      V_Ref      V_Med          E(%) 
----------------------------------------------------------------------------------
   1    0    1  6   0  0 0.015 01.1  0.00520   +1.04000   +1.05233     +1.185577 
   2    0    2  6   0  0 0.015 01.1  0.00511   +1.02162   +1.02438     +0.270159 
   3    0    3  6   0  0 0.015 01.1  0.00515   +1.02898   +1.03933     +1.005850 
   4    0    4  6   0  0 0.015 01.1  0.00511   +1.02250   +1.02196     -0.052812 
   5    0    5  6   0  0 0.015 01.1  0.00505   +1.01100   +0.99763     -1.322453 
   6    0    6  6   0  0 0.015 01.1  0.00504   +1.00800   +1.00680     -0.119048 
   7    0    7  6   0  0 0.015 01.1  0.00502   +1.00350   +0.99804     -0.544096 
   8    0    8  6   0  0 0.015 01.1  0.00502   +1.00500   +1.01737     +1.230846 
   9    0    9  6   0  0 0.015 01.1  0.00495   +0.99001   +1.00183     +1.193927 
  10    0   10  6   0  0 0.015 01.1  0.00500   +1.00090   +1.00543     +0.452593 
  11    0   11  6   0  0 0.015 01.1  0.00496   +0.99310   +0.98553     -0.762260 
  12    0   12  6   0  0 0.015 01.1  0.00507   +1.01500   +1.00690     -0.798030 
  13    0   13  6   0  0 0.015 01.1  0.00499   +0.99874   +1.00019     +0.145183 
  14    0   14  6   0  0 0.015 01.1  0.00499   +0.99711   +0.99390     -0.321930 
  15    0   15  6   0  0 0.015 01.1  0.00506   +1.01251   +1.02025     +0.764437 
  16    0   16  6   0  0 0.015 01.1  0.00509   +1.01903   +1.01575     -0.321875 
  17    0   17  6   0  0 0.015 01.1  0.00513   +1.02531   +1.01809     -0.704177 
  18    0   18  6   0  0 0.015 01.1  0.00529   +1.05827   +1.05341     -0.459240 
  19    0   19  6   0  0 0.015 01.1  0.00515   +1.03059   +1.04402     +1.303137 
  20    0   20  6   0  0 0.015 01.1  0.00510   +1.02016   +1.01630     -0.378372 
  21    0   21  6   0  0 0.015 01.1  0.00531   +1.06281   +1.06225     -0.052691 
  22    0   22  6   0  0 0.015 01.1  0.00531   +1.06176   +1.05342     -0.785488 
  23    0   23  6   0  0 0.015 01.1  0.00531   +1.06128   +1.06228     +0.094226 
  24    0   24  6   0  0 0.015 01.1  0.00530   +1.06088   +1.05165     -0.870032 
  25    0   25  6   0  0 0.015 01.1  0.00536   +1.07236   +1.06577     -0.614532 
  26    0   26  6   0  0 0.015 01.1  0.00507   +1.01391   +1.01488     +0.095669 
  27    0   27  6   0  0 0.015 01.1  0.00512   +1.02424   +1.02447     +0.022456 
  28    0   28  6   0  0 0.015 01.1  0.00516   +1.03233   +1.03231     -0.001937 
  29    0   29  6   0  0 0.015 01.1  0.00520   +1.04020   +1.05305     +1.235339 
  30    0   30  6   0  0 0.015 01.1  0.00530   +1.06056   +1.06789     +0.691144 
  31    0   31  6   0  0 0.015 01.1  0.00522   +1.04306   +1.05556     +1.198397 
  32    0   32  6   0  0 0.015 01.1  0.00522   +1.04453   +1.05409     +0.915244 
  33    0   33  6   0  0 0.015 01.1  0.00522   +1.04333   +1.04170     -0.156231 
  34    0   34  6   0  0 0.015 01.1  0.00517   +1.03386   +1.02564     -0.795079 
  35    0   35  6   0  0 0.015 01.1  0.00518   +1.03674   +1.02328     -1.298300 
  36    0   36  6   0  0 0.015 01.1  0.00521   +1.04112   +1.03438     -0.647380 
  37    0   37  6   0  0 0.015 01.1  0.00523   +1.04613   +1.04398     -0.205519 
  38    0   38  6   0  0 0.015 01.1  0.00531   +1.06242   +1.06099     -0.134598 
  39    0   39  6   0  0 0.015 01.1  0.00522   +1.04473   +1.05975     +1.437692 
  40    0   40  6   0  0 0.015 01.1  0.00519   +1.03857   +1.05187     +1.280607 
  41    0   41  6   0  0 0.015 01.1  0.00519   +1.03775   +1.04079     +0.292941 
  42    0   42  6   0  0 0.015 01.1  0.00513   +1.02609   +1.02866     +0.250465 
  43    0   43  6   0  0 0.015 01.1  0.00518   +1.03613   +1.02411     -1.160086 
  44    0   44  6   0  0 0.015 01.1  0.00530   +1.06102   +1.05781     -0.302539 
  45    0   45  6   0  0 0.015 01.1  0.00531   +1.06289   +1.07702     +1.329394 
  46    0   46  6   0  0 0.015 01.1  0.00547   +1.09390   +1.08452     -0.857482 
  47    0   47  6   0  0 0.015 01.1  0.00538   +1.07622   +1.06558     -0.988645 
  48    0   48  6   0  0 0.015 01.1  0.00536   +1.07228   +1.06735     -0.459768 
  49    0   49  6   0  0 0.015 01.1  0.00539   +1.07738   +1.08126     +0.360133 
  50    0   50  6   0  0 0.015 01.1  0.00533   +1.06622   +1.06417     -0.192268 
  51    0   51  6   0  0 0.015 01.1  0.00538   +1.07525   +1.07254     -0.252034 
  52    0   52  6   0  0 0.015 01.1  0.00513   +1.02613   +1.01952     -0.644168 
  53    0   53  6   0  0 0.015 01.1  0.00511   +1.02230   +1.03472     +1.214908 
  54    0   54  6   0  0 0.015 01.1  0.00516   +1.03156   +1.03722     +0.548684 
  55    0   55  6   0  0 0.015 01.1  0.00523   +1.04614   +1.03372     -1.187222 
  56    0   56  6   0  0 0.015 01.1  0.00516   +1.03126   +1.01837     -1.249927 
  57    0   57  6   0  0 0.015 01.1  0.00516   +1.03160   +1.01654     -1.459868 
  58    0    1  2   0  0 0.020 01.0  0.01990   -2.72558   -2.67557     -1.834839 
  59    0    2  2   0  0 0.020 01.0  0.00185   -0.01700   -0.01847     +8.647059 
  60    0    3  2   0  0 0.020 01.0  0.01890   +2.57500   +2.56616     -0.343301 
  61    0    4  2   0  0 0.020 01.0  0.00173   +0.00000   +0.00079     +0.000000 
  62    0    5  2   0  0 0.020 01.0  0.00223   -0.07400   -0.07819     +5.662162 
  63    0    6  2   0  0 0.020 01.0  0.00458   -0.42700   -0.44013     +3.074941 
  64    0    7  2   0  0 0.020 01.0  0.00173   +0.00000   +0.00164     +0.000000 
  65    0    8  2   0  0 0.020 01.0  0.02603   +3.64500   +3.63854     -0.177229 
  66    0    9  2   0  0 0.020 01.0  0.00907   -1.10100   -1.11733     +1.483197 
  67    0   10  2   0  0 0.020 01.0  0.00192   -0.02800   -0.03150    +12.500000 
  68    0   11  2   0  0 0.020 01.0  0.00173   +0.00000   +0.00201     +0.000000 
  69    0   12  2   0  0 0.020 01.0  0.00683   +0.76500   +0.77514     +1.325490 
  70    0   13  2   0  0 0.020 01.0  0.00242   -0.10300   -0.10237     -0.611650 
  71    0   14  2   0  0 0.020 01.0  0.00213   -0.06000   -0.05967     -0.550000 
  72    0   15  2   0  0 0.020 01.0  0.00257   -0.12500   -0.12644     +1.152000 
  73    0   16  2   0  0 0.020 01.0  0.00337   -0.24500   -0.24385     -0.469388 
  74    0   17  2   0  0 0.020 01.0  0.00333   -0.23900   -0.23440     -1.924686 
  75    0   18  2   0  0 0.020 01.0  0.00277   -0.15500   -0.15843     +2.212903 
  76    0   19  2   0  0 0.020 01.0  0.00186   -0.01900   -0.01582    -16.736842 
  77    0   20  2   0  0 0.020 01.0  0.00182   -0.01300   -0.01763    +35.615385 
  78    0   21  2   0  0 0.020 01.0  0.00173   -0.00000   -0.00029     +0.000000 
  79    0   22  2   0  0 0.020 01.0  0.00173   +0.00000   -0.00105     +0.000000 
  80    0   23  2   0  0 0.020 01.0  0.00197   -0.03600   -0.03113    -13.527778 
  81    0   24  2   0  0 0.020 01.0  0.00173   +0.00000   -0.00075     +0.000000 
  82    0   25  2   0  0 0.020 01.0  0.00197   -0.03600   -0.03073    -14.638889 
  83    0   26  2   0  0 0.020 01.0  0.00173   -0.00000   -0.00099     +0.000000 
  84    0   27  2   0  0 0.020 01.0  0.00209   -0.05300   -0.05622     +6.075472 
  85    0   28  2   0  0 0.020 01.0  0.00191   -0.02600   -0.02174    -16.384615 
  86    0   29  2   0  0 0.020 01.0  0.00238   -0.09700   -0.09709     +0.092784 
  87    0   30  2   0  0 0.020 01.0  0.00187   -0.02100   -0.02186     +4.095238 
  88    0   31  2   0  0 0.020 01.0  0.00195   -0.03300   -0.03239     -1.848485 
  89    0   32  2   0  0 0.020 01.0  0.00179   -0.00900   -0.01171    +30.111111 
  90    0   33  2   0  0 0.020 01.0  0.00188   -0.02200   -0.02474    +12.454545 
  91    0   34  2   0  0 0.020 01.0  0.00173   -0.00000   -0.00302     +0.000000 
  92    0   35  2   0  0 0.020 01.0  0.00196   -0.03400   -0.03305     -2.794118 
  93    0   36  2   0  0 0.020 01.0  0.00173   +0.00000   +0.00349     +0.000000 
  94    0   37  2   0  0 0.020 01.0  0.00173   +0.00000   +0.00367     +0.000000 
  95    0   38  2   0  0 0.020 01.0  0.00227   -0.08000   -0.07804     -2.450000 
  96    0   39  2   0  0 0.020 01.0  0.00173   +0.00000   +0.00504     +0.000000 
  97    0   40  2   0  0 0.020 01.0  0.00173   +0.00000   +0.00498     +0.000000 
  98    0   41  2   0  0 0.020 01.0  0.00197   -0.03600   -0.03384     -6.000000 
  99    0   42  2   0  0 0.020 01.0  0.00200   -0.04000   -0.03657     -8.575000 
 100    0   43  2   0  0 0.020 01.0  0.00181   -0.01100   -0.01264    +14.909091 
 101    0   44  2   0  0 0.020 01.0  0.00219   -0.06800   -0.06432     -5.411765 
 102    0   45  2   0  0 0.020 01.0  0.00173   -0.00000   -0.00472     +0.000000 
 103    0   46  2   0  0 0.020 01.0  0.00173   +0.00000   -0.00153     +0.000000 
 104    0   47  2   0  0 0.020 01.0  0.00286   -0.16900   -0.17145     +1.449704 
 105    0   48  2   0  0 0.020 01.0  0.00173   +0.00000   -0.00385     +0.000000 
 106    0   49  2   0  0 0.020 01.0  0.00242   -0.10300   -0.09600     -6.796117 
 107    0   50  2   0  0 0.020 01.0  0.00253   -0.12000   -0.12128     +1.066667 
 108    0   51  2   0  0 0.020 01.0  0.00242   -0.10300   -0.10436     +1.320388 
 109    0   52  2   0  0 0.020 01.0  0.00192   -0.02800   -0.02474    -11.642857 
 110    0   53  2   0  0 0.020 01.0  0.00249   -0.11400   -0.11500     +0.877193 
 111    0   54  2   0  0 0.020 01.0  0.00189   -0.02300   -0.02214     -3.739130 
 112    0   55  2   0  0 0.020 01.0  0.00199   -0.03900   -0.03720     -4.615385 
 113    0   56  2   0  0 0.020 01.0  0.00202   -0.04300   -0.04866    +13.162791 
 114    0   57  2   0  0 0.020 01.0  0.00199   -0.03800   -0.03914     +3.000000 
 115    0    1  5   0  0 0.020 01.0  0.01405   +1.84730   +1.88598     +2.093867 
 116    0    2  5   0  0 0.020 01.0  0.00621   -0.67200   -0.66844     -0.529762 
 117    0    3  5   0  0 0.020 01.0  0.00320   -0.22000   -0.21168     -3.781818 
 118    0    4  5   0  0 0.020 01.0  0.00173   +0.00000   +0.00455     +0.000000 
 119    0    5  5   0  0 0.020 01.0  0.00189   -0.02300   -0.02011    -12.565217 
 120    0    6  5   0  0 0.020 01.0  0.00234   -0.09100   -0.09045     -0.604396 
 121    0    7  5   0  0 0.020 01.0  0.00173   -0.00000   +0.00337     +0.000000 
 122    0    8  5   0  0 0.020 01.0  0.00363   -0.28399   -0.29463     +3.746611 
 123    0    9  5   0  0 0.020 01.0  0.00351   -0.26700   -0.26180     -1.947566 
 124    0   10  5   0  0 0.020 01.0  0.00181   -0.01100   -0.01530    +39.090909 
 125    0   11  5   0  0 0.020 01.0  0.00173   -0.00000   -0.00470     +0.000000 
 126    0   12  5   0  0 0.020 01.0  0.00251   +0.11667   +0.11193     -4.062741 
 127    0   13  5   0  0 0.020 01.0  0.00182   -0.01300   -0.01330     +2.307692 
 128    0   14  5   0  0 0.020 01.0  0.00193   -0.03000   -0.03569    +18.966667 
 129    0   15  5   0  0 0.020 01.0  0.00192   -0.02800   -0.02387    -14.750000 
 130    0   16  5   0  0 0.020 01.0  0.00185   -0.01700   -0.01729     +1.705882 
 131    0   17  5   0  0 0.020 01.0  0.00204   -0.04600   -0.05028     +9.304348 
 132    0   18  5   0  0 0.020 01.0  0.00211   -0.05600   -0.05922     +5.750000 
 133    0   19  5   0  0 0.020 01.0  0.00175   -0.00300   -0.00766   +155.333333 
 134    0   20  5   0  0 0.020 01.0  0.00177   -0.00600   -0.00914    +52.333333 
 135    0   21  5   0  0 0.020 01.0  0.00173   +0.00000   -0.00036     +0.000000 
 136    0   22  5   0  0 0.020 01.0  0.00173   -0.00000   -0.00041     +0.000000 
 137    0   23  5   0  0 0.020 01.0  0.00181   -0.01200   -0.01362    +13.500000 
 138    0   24  5   0  0 0.020 01.0  0.00173   -0.00000   -0.00061     +0.000000 
 139    0   25  5   0  0 0.020 01.0  0.00185   -0.01800   -0.01990    +10.555556 
 140    0   26  5   0  0 0.020 01.0  0.00173   +0.00000   +0.00075     +0.000000 
 141    0   27  5   0  0 0.020 01.0  0.00175   -0.00300   +0.00218   -172.666667 
 142    0   28  5   0  0 0.020 01.0  0.00182   -0.01300   -0.01062    -18.307692 
 143    0   29  5   0  0 0.020 01.0  0.00183   -0.01500   -0.01653    +10.200000 
 144    0   30  5   0  0 0.020 01.0  0.00180   -0.01000   -0.00921     -7.900000 
 145    0   31  5   0  0 0.020 01.0  0.00185   -0.01700   -0.01833     +7.823529 
 146    0   32  5   0  0 0.020 01.0  0.00177   -0.00500   -0.00636    +27.200000 
 147    0   33  5   0  0 0.020 01.0  0.00181   -0.01100   -0.01182     +7.454545 
 148    0   34  5   0  0 0.020 01.0  0.00173   -0.00000   +0.00253     +0.000000 
 149    0   35  5   0  0 0.020 01.0  0.00185   -0.01700   -0.01855     +9.117647 
 150    0   36  5   0  0 0.020 01.0  0.00173   -0.00000   +0.00132     +0.000000 
 151    0   37  5   0  0 0.020 01.0  0.00173   +0.00000   +0.00367     +0.000000 
 152    0   38  5   0  0 0.020 01.0  0.00200   -0.04000   -0.04456    +11.400000 
 153    0   39  5   0  0 0.020 01.0  0.00173   -0.00000   -0.00339     +0.000000 
 154    0   40  5   0  0 0.020 01.0  0.00173   -0.00000   +0.00469     +0.000000 
 155    0   41  5   0  0 0.020 01.0  0.00185   -0.01700   -0.01171    -31.117647 
 156    0   42  5   0  0 0.020 01.0  0.00190   -0.02500   -0.02783    +11.320000 
 157    0   43  5   0  0 0.020 01.0  0.00177   -0.00600   -0.00829    +38.166667 
 158    0   44  5   0  0 0.020 01.0  0.00180   -0.01000   -0.00635    -36.500000 
 159    0   45  5   0  0 0.020 01.0  0.00173   +0.00000   +0.00314     +0.000000 
 160    0   46  5   0  0 0.020 01.0  0.00173   +0.00000   -0.00135     +0.000000 
 161    0   47  5   0  0 0.020 01.0  0.00217   -0.06600   -0.06779     +2.712121 
 162    0   48  5   0  0 0.020 01.0  0.00173   -0.00000   -0.00237     +0.000000 
 163    0   49  5   0  0 0.020 01.0  0.00205   -0.04800   -0.05096     +6.166667 
 164    0   50  5   0  0 0.020 01.0  0.00213   -0.06000   -0.05367    -10.550000 
 165    0   51  5   0  0 0.020 01.0  0.00193   -0.03000   -0.03526    +17.533333 
 166    0   52  5   0  0 0.020 01.0  0.00182   -0.01300   -0.01107    -14.846154 
 167    0   53  5   0  0 0.020 01.0  0.00211   -0.05700   -0.05698     -0.035088 
 168    0   54  5   0  0 0.020 01.0  0.00179   -0.00800   -0.01215    +51.875000 
 169    0   55  5   0  0 0.020 01.0  0.00186   -0.01900   -0.01943     +2.263158 
 170    0   56  5   0  0 0.020 01.0  0.00182   -0.01300   -0.01061    -18.384615 
 171    0   57  5   0  0 0.020 01.0  0.00181   -0.01100   -0.00601    -45.363636 
 172    1    2  1   0  0 0.020 01.0  0.01021   -1.27107   -1.26930     -0.139253 
 173    2    3  1   0  0 0.020 01.0  0.01046   -1.30963   -1.28230     -2.086849 
 174    3    4  1   0  0 0.020 01.0  0.00213   -0.05873   -0.05248    -10.641921 
 175    4    5  1   0  0 0.020 01.0  0.00228   -0.08261   -0.08308     +0.568938 
 176    4    6  1   0  0 0.020 01.0  0.00292   -0.17750   -0.17989     +1.346479 
 177    6    7  1   0  0 0.020 01.0  0.00362   -0.28329   -0.29219     +3.141657 
 178    6    8  1   0  0 0.020 01.0  0.00495   -0.48271   -0.47249     -2.117213 
 179    8    9  1   0  0 0.020 01.0  0.01758   +2.37660   +2.36750     -0.382900 
 180    9   10  1   0  0 0.020 01.0  0.00358   +0.27703   +0.28256     +1.996174 
 181    9   11  1   0  0 0.020 01.0  0.00425   +0.37798   +0.37936     +0.365099 
 182    9   12  1   0  0 0.020 01.0  0.00293   +0.17918   +0.17876     -0.234401 
 183    9   13  1   0  0 0.020 01.0  0.00383   +0.31391   +0.30855     -1.707496 
 184   13   14  1   0  0 0.020 01.0  0.00315   +0.21321   +0.20631     -3.236246 
 185   13   15  1   0  0 0.020 01.0  0.00215   +0.06213   +0.05669     -8.755835 
 186    1   15  1   0  0 0.020 01.0  0.00841   -1.00121   -0.98372     -1.746886 
 187    1   16  1   0  0 0.020 01.0  0.00351   -0.26705   -0.27048     +1.284404 
 188    1   17  1   0  0 0.020 01.0  0.00298   -0.18626   -0.18315     -1.669709 
 189    3   15  1   0  0 0.020 01.0  0.01019   +1.26912   +1.24493     -1.906045 
 190    4   18  1   0  0 0.020 01.0  0.00232   +0.08812   +0.08934     +1.384476 
 191    4   18  1   0  0 0.020 01.0  0.00248   +0.11281   +0.10706     -5.097066 
 192    5    6  1   0  0 0.020 01.0  0.00279   -0.15803   -0.16222     +2.651395 
 193    7    8  1   0  0 0.020 01.0  0.00686   -0.76883   -0.77236     +0.459139 
 194   10   12  1   0  0 0.020 01.0  0.00203   +0.04464   +0.04727     +5.891577 
 195   11   13  1   0  0 0.020 01.0  0.00330   +0.23532   +0.24264     +3.110658 
 196   12   13  1   0  0 0.020 01.0  0.00193   +0.02907   +0.03272    +12.555900 
 197   12   16  1   0  0 0.020 01.0  0.00521   +0.52147   +0.51311     -1.603160 
 198   12   17  1   0  0 0.020 01.0  0.00463   +0.43478   +0.43051     -0.982106 
 199   14   15  1   0  0 0.020 01.0  0.00222   -0.07313   -0.06699     -8.396007 
...
Número de medidores SCADA:     491
Número de PMUs:                0
Número de medidas das PMUs:    0
----------------------------------------------------------------------------------

Não há medidas de ângulo.
Não há medidores desabilitados.
============================== Estado Estimado ===================================
                 Barra     Mod(pu)    Ang(graus)              
----------------------------------------------------------------------------------
                    1            1.0400              0.00        
                    2            1.0215              2.40        
                    3            1.0287              9.17        
                    4            1.0221              9.42        
                    5            1.0104             10.46        
                    6            1.0075             11.25        
                    7            1.0031             13.02        
                    8            1.0046             16.26        
                    9            0.9898              9.31        
                   10            1.0005              6.37        
                   11            0.9927              7.24        
                   12            1.0146              5.87        
                   13            0.9983              6.05        
                   14            0.9967              5.51        
                   15            1.0123              5.48        
                   16            1.0187              3.38        
                   17            1.0250              1.30        
                   18            1.0551              7.00        
                   19            1.0277              5.69        
                   20            1.0174              5.14        
                   21            1.0623              4.55        
                   22            1.0614              4.47        
                   23            1.0609              4.53        
                   24            1.0600              5.87        
                   25            1.0720              3.19        
                   26            1.0130              6.30        
                   27            1.0238              9.15        
                   28            1.0320             10.50        
                   29            1.0398             11.37        
                   30            1.0603              2.85        
                   31            1.0427              2.34        
                   32            1.0448              2.39        
                   33            1.0437              2.37        
                   34            1.0339              3.94        
                   35            1.0368              4.03        
                   36            1.0411              4.15        
                   37            1.0461              4.19        
                   38            1.0620              4.35        
                   39            1.0445              4.19        
                   40            1.0387              4.19        
                   41            1.0380              5.01        
                   42            1.0261              3.94        
                   43            1.0357              6.56        
                   44            1.0608              4.44        
                   45            1.0628              5.03        
                   46            1.0932              4.72        
                   47            1.0755              4.22        
                   48            1.0716              4.27        
                   49            1.0768              4.31        
                   50            1.0660              4.46        
                   51            1.0747              5.66        
                   52            1.0262              9.81        
                   53            1.0223              9.05        
                   54            1.0313              8.82        
                   55            1.0460              8.85        
                   56            1.0308              3.29        
                   57            1.0311              2.84        
----------------------------------------------------------------------------------
Convergiu em:    2 iteraçoes. 
----------------------------------------------------------------------------------
--- RESIDUOS NORMALIZADOS --------------------------------------------------------
   N    D    P  TP      Real     Medido   Estimado      Med-Est        rn 
----------------------------------------------------------------------------------
 190    4   18  1    +0.0881    +0.0893    +0.1084  -1.9051e-02      0.420 
 350   18    4  1    -0.0881    -0.0900    -0.1084  +1.8351e-02      0.404 
 430   18    4  4    +0.0098    +0.0112    +0.0269  -1.5687e-02      0.395 
 115    0    1  5    +1.8473    +1.8860    +1.8516  +3.4336e-02      0.353 
 332    2    1  1    +1.2926    +1.3102    +1.2828  +2.7367e-02      0.289 
 270    4   18  4    -0.0059    -0.0111    -0.0221  +1.0979e-02      0.278 
 106    0   49  2    -0.1030    -0.0960    -0.1041  +8.1289e-03      0.251 
  75    0   18  2    -0.1550    -0.1584    -0.1484  -1.0002e-02      0.247 
  19    0   19  6    +1.0306    +1.0440    +1.0277  +1.6323e-02      0.234 
 132    0   18  5    -0.0560    -0.0592    -0.0673  +8.1243e-03      0.232 
 337    7    6  1    +0.2851    +0.2757    +0.2884  -1.2662e-02      0.227 
 426   15    1  4    -0.5031    -0.4888    -0.5041  +1.5268e-02      0.226 
  58    0    1  2    -2.7256    -2.6756    -2.7027  +2.7134e-02      0.225 
  61    0    4  2    +0.0000    +0.0008    -0.0043  +5.0826e-03      0.217 
  39    0   39  6    +1.0447    +1.0597    +1.0445  +1.5257e-02      0.213 
  57    0   57  6    +1.0316    +1.0165    +1.0311  -1.4607e-02      0.208 
 174    3    4  1    -0.0587    -0.0525    -0.0599  +7.4252e-03      0.201 
 343   13    9  1    -0.3081    -0.3187    -0.3069  -1.1833e-02      0.197 
  45    0   45  6    +1.0629    +1.0770    +1.0628  +1.4219e-02      0.197 
  63    0    6  2    -0.4270    -0.4401    -0.4308  -9.3392e-03      0.196 
 349   15    3  1    -1.2445    -1.2173    -1.2353  +1.7997e-02      0.193 
 338    8    6  1    +0.4911    +0.4798    +0.4929  -1.3138e-02      0.192 
 436   13   12  4    -0.3015    -0.3119    -0.3011  -1.0796e-02      0.190 
  35    0   35  6    +1.0367    +1.0233    +1.0368  -1.3505e-02      0.190 
 273    7    8  4    +0.1417    +0.1341    +0.1429  -8.7875e-03      0.188 
 424   14   13  4    +0.0227    +0.0284    +0.0211  +7.2741e-03      0.187 
  40    0   40  6    +1.0386    +1.0519    +1.0387  +1.3187e-02      0.185 
  29    0   29  6    +1.0402    +1.0531    +1.0398  +1.3218e-02      0.185 
  31    0   31  6    +1.0431    +1.0556    +1.0427  +1.2832e-02      0.185 
  82    0   25  2    -0.0360    -0.0307    -0.0366  +5.8345e-03      0.184 
   8    0    8  6    +1.0050    +1.0174    +1.0046  +1.2820e-02      0.182 
   5    0    5  6    +1.0110    +0.9976    +1.0104  -1.2762e-02      0.181 
 267    1   16  4    +0.1442    +0.1364    +0.1454  -8.9838e-03      0.180 
 205   23   24  1    -0.0711    -0.0777    -0.0702  -7.5536e-03      0.178 
 173    2    3  1    -1.3096    -1.2823    -1.2997  +1.7392e-02      0.178 
  69    0   12  2    +0.7650    +0.7751    +0.7638  +1.1378e-02      0.178 
  53    0   53  6    +1.0223    +1.0347    +1.0223  +1.2455e-02      0.176 
  56    0   56  6    +1.0313    +1.0184    +1.0308  -1.2424e-02      0.176 
 178    6    8  1    -0.4827    -0.4725    -0.4845  +1.2014e-02      0.176 
 412    2    1  4    -1.0877    -1.0743    -1.0893  +1.5002e-02      0.176 
   9    0    9  6    +0.9900    +1.0018    +0.9898  +1.2051e-02      0.173 
   1    0    1  6    +1.0400    +1.0523    +1.0400  +1.2330e-02      0.172 
  55    0   55  6    +1.0461    +1.0337    +1.0460  -1.2235e-02      0.171 
 413    3    2  4    -0.3448    -0.3341    -0.3441  +9.9776e-03      0.170 
 361   20   19  1    -0.0258    -0.0204    -0.0271  +6.7132e-03      0.169 
 283   21   22  4    +0.0015    +0.0067    +0.0007  +5.9684e-03      0.169 
 414    4    3  4    -0.2187    -0.2157    -0.2240  +8.2735e-03      0.167 
  66    0    9  2    -1.1010    -1.1173    -1.1068  -1.0512e-02      0.164 
  74    0   17  2    -0.2390    -0.2344    -0.2413  +6.9479e-03      0.164 
 356   13   12  1    -0.0278    -0.0225    -0.0286  +6.0819e-03      0.164 
 323   44   45  4    +0.0239    +0.0289    +0.0224  +6.5443e-03      0.164 
  43    0   43  6    +1.0361    +1.0241    +1.0357  -1.1617e-02      0.163 
 474   50   49  4    -0.0784    -0.0818    -0.0748  -6.9950e-03      0.163 
 391   47   46  1    -0.2239    -0.2143    -0.2227  +8.3558e-03      0.162 
 366   25   24  1    -0.0454    -0.0502    -0.0432  -6.9497e-03      0.161 
 353    8    7  1    +0.7773    +0.7894    +0.7772  +1.2188e-02      0.158 
 124    0   10  5    -0.0110    -0.0153    -0.0110  -4.2727e-03      0.158 
 189    3   15  1    +1.2691    +1.2449    +1.2596  -1.4633e-02      0.157 
 168    0   54  5    -0.0080    -0.0121    -0.0073  -4.8382e-03      0.154 
 335    5    4  1    +0.0840    +0.0892    +0.0823  +6.8835e-03      0.154 
 274   10   12  4    -0.1378    -0.1302    -0.1375  +7.3758e-03      0.153 
   3    0    3  6    +1.0290    +1.0393    +1.0287  +1.0604e-02      0.149 
 305   11   41  4    +0.0041    +0.0091    +0.0030  +6.0667e-03      0.149 
 374   31   30  1    -0.0313    -0.0367    -0.0309  -5.8187e-03      0.148 
 368   26   24  1    +0.1613    +0.1697    +0.1628  +6.9044e-03      0.147 
 331    9   55  4    +0.0620    +0.0672    +0.0615  +5.7819e-03      0.147 
 255    4    5  4    +0.1161    +0.1235    +0.1165  +6.9747e-03      0.147 
 428   17    1  4    -0.1933    -0.1883    -0.1956  +7.3615e-03      0.146 
 258    6    8  4    +0.1104    +0.1037    +0.1107  -6.9810e-03      0.145 
 344   14   13  1    -0.2126    -0.2187    -0.2111  -7.5006e-03      0.145 
 394   50   49  1    -0.0232    -0.0185    -0.0240  +5.4541e-03      0.143 
  67    0   10  2    -0.0280    -0.0315    -0.0277  -3.8139e-03      0.142 
  93    0   36  2    +0.0000    +0.0035    -0.0004  +3.8961e-03      0.142 
 116    0    2  5    -0.6720    -0.6684    -0.6767  +8.2811e-03      0.140 
 104    0   47  2    -0.1690    -0.1714    -0.1655  -5.9431e-03      0.140 
 472   48   47  4    -0.1388    -0.1433    -0.1369  -6.3509e-03      0.140 
 346   15    1  1    +1.0229    +1.0276    +1.0153  +1.2265e-02      0.140 
 195   11   13  1    +0.2353    +0.2426    +0.2353  +7.3414e-03      0.140 
 306   41   42  4    +0.0015    -0.0033    +0.0019  -5.2566e-03      0.139 
 123    0    9  5    -0.2670    -0.2618    -0.2566  -5.2302e-03      0.137 
  47    0   47  6    +1.0762    +1.0656    +1.0755  -9.9152e-03      0.136 
 427   16    1  4    -0.1828    -0.1912    -0.1841  -7.1434e-03      0.136 
 441   20   19  4    -0.0076    -0.0115    -0.0063  -5.1774e-03      0.135 
 390   46   14  1    -0.2257    -0.2175    -0.2245  +6.9769e-03      0.135 
 119    0    5  5    -0.0230    -0.0201    -0.0243  +4.1720e-03      0.135 
 201   19   20  1    +0.0260    +0.0220    +0.0273  -5.2850e-03      0.134 
 235   50   51  1    -0.0968    -0.1026    -0.0965  -6.1140e-03      0.133 
  77    0   20  2    -0.0130    -0.0176    -0.0133  -4.3474e-03      0.133 
  32    0   32  6    +1.0445    +1.0541    +1.0448  +9.2912e-03      0.133 
 199   14   15  1    -0.0731    -0.0670    -0.0726  +5.6404e-03      0.132 
 371   29   28  1    +0.2507    +0.2581    +0.2514  +6.7278e-03      0.131 
 271    4   18  4    -0.0285    -0.0275    -0.0221  -5.4205e-03      0.131 
 407   57   39  1    -0.0177    -0.0138    -0.0192  +5.4382e-03      0.130 
...